/*--------------------------------*- C++ -*----------------------------------*\
|       o          |                                                          |
|    o     o       | HELYX(R): Open-source CFD for Enterprise                 |
|   o   O   o      | Version: v3.2.1-r1                                       |
|    o     o       | Engys Ltd. http://www.engys.com                          |
|       o          |                                                          |
\*---------------------------------------------------------------------------*/
FoamFile
{
    version  2.0;
    format   ascii;
    class    dictionary;
    location system;
    object   helyxHexMeshDict;
}

castellatedMesh    true;
snap               true;
addLayers          true;
autoBlockMesh      true;
blockData          ( 19.2 0 );
crackDetection     true;
crackTol           0.05;
allowTopoChanges   true;
finalDecomposition ptscotch;
meshMode           quality;

geometry
{
    inlet.stl             {type triSurfaceMesh;name inlet             ;appendRegionName false;}
    left.stl              {type triSurfaceMesh;name left              ;appendRegionName false;}
    outlet.stl            {type triSurfaceMesh;name outlet            ;appendRegionName false;}
    right.stl             {type triSurfaceMesh;name right             ;appendRegionName false;}
    top.stl               {type triSurfaceMesh;name top               ;appendRegionName false;}

    ground_inner.stl      {type triSurfaceMesh;name ground_inner      ;appendRegionName false;}
    ground_outer_0_1.stl  {type triSurfaceMesh;name ground_outer_0_1  ;appendRegionName false;}
    ground_outer_0_2.stl  {type triSurfaceMesh;name ground_outer_0_2  ;appendRegionName false;}
    ground_outer_0_3.stl  {type triSurfaceMesh;name ground_outer_0_3  ;appendRegionName false;} 
    ground_outer_0_03.stl {type triSurfaceMesh;name ground_outer_0_03 ;appendRegionName false;}
    ground_outer_0_4.stl  {type triSurfaceMesh;name ground_outer_0_4  ;appendRegionName false;}
    ground_outer_0_5.stl  {type triSurfaceMesh;name ground_outer_0_5  ;appendRegionName false;}
    ground_outer_0_05.stl {type triSurfaceMesh;name ground_outer_0_05 ;appendRegionName false;}
    ground_outer_0_15.stl {type triSurfaceMesh;name ground_outer_0_15 ;appendRegionName false;}

    surroundings.stl      {type triSurfaceMesh;name surroundings      ;appendRegionName false;}
    near_surroundings.stl {type triSurfaceMesh;name near_surroundings ;appendRegionName false;}
    buildings_proposed.stl{type triSurfaceMesh;name buildings_proposed;appendRegionName false;}
    canopy.stl            {type triSurfaceMesh;name canopy            ;appendRegionName false;}

    // Refinements primitive shapes (cylenders, boxes...)
    box_1 { type searchableBox; min ( -650.0 -450.0 -20.0 ); max ( 450.0 480 300 );}
    // cylinder_1 { type searchableCylinder; point1 ( 0.0 0.0 -20.0 ); point2 ( 0.0 0.0 300.0 ); radius 1200.0;}
}

castellatedMeshControls
{
    features
    (
        {file "surroundings_intersect.eMesh"      ;levels ( ( 0.0 5 ) );refineFeatureEdgesOnly false;}
        {file "near_surroundings_intersect.eMesh" ;levels ( ( 0.0 5 ) );refineFeatureEdgesOnly false;}
        {file "buildings_proposed_intersect.eMesh";levels ( ( 0.0 6 ) );refineFeatureEdgesOnly false;}
        {file "canopy_intersect.eMesh"            ;levels ( ( 0.0 6 ) );refineFeatureEdgesOnly false;}

        {file "ground_inner.eMesh"                ;levels ( ( 0.0 4 ) );refineFeatureEdgesOnly false;}
        {file "surroundings.eMesh"                ;levels ( ( 0.0 5 ) );refineFeatureEdgesOnly false;}
        {file "near_surroundings.eMesh"           ;levels ( ( 0.0 7 ) );refineFeatureEdgesOnly false;}
        {file "buildings_proposed.eMesh"          ;levels ( ( 0.0 5 ) );refineFeatureEdgesOnly false;}
        {file "canopy.eMesh"                      ;levels ( ( 0.0 7 ) );refineFeatureEdgesOnly false;}			
    );
    
    refinementSurfaces
    {
        inlet                {level ( 0 0 );}
        outlet               {level ( 0 0 );}
        left                 {level ( 0 0 );}
        right                {level ( 0 0 );}
        top                  {level ( 0 0 );}
        
        ground_inner         {level ( 3 4 );featureRefineAngle 5.0;}   
        ground_outer_0_1     {level ( 0 0 );}
        ground_outer_0_2     {level ( 0 0 );}
        ground_outer_0_3     {level ( 0 0 );}
        ground_outer_0_03    {level ( 0 0 );}
        ground_outer_0_4     {level ( 0 0 );}
        ground_outer_0_5     {level ( 0 0 );}
        ground_outer_0_05    {level ( 0 0 );}
        ground_outer_0_15    {level ( 0 0 );}

                    
        buildings_proposed   {level ( 5 7 );proximityIncrement 1  ;maxCellsAcrossGap 4;}
        surroundings         {level ( 4 5 );proximityIncrement 1  ;maxCellsAcrossGap 4;}
        near_surroundings    {level ( 4 5 );proximityIncrement 1  ;maxCellsAcrossGap 4;}
        canopy               {level ( 5 7 );proximityIncrement 1  ;maxCellsAcrossGap 4;}
    }
    
    refinementRegions
    {
                    
        // target {mode distance; levels (( 2.4 6 ) ( 7.2 5 ) ( 28.8 4 ));}
        //target_fine {mode distance; levels (( 2.4 6 ) ( 7.2 5 ) ( 28.8 4 ));}
        
        box_1{ mode inside; levels (( 1E15 1 ));}
        // cylinder_1{ mode inside; levels (( 1E15 1 ));}

    }

    maxLocalCells              250000000;
    maxGlobalCells             1000000000;
    minRefinementCells         100;
    maxLoadUnbalance           0.1;
    nCellsBetweenLevels        4;
    //nCellsBetweenLevels      2;
    resolveFeatureAngle        -60.0;
    featureRefineAngle         20.0;
    refineSurfaceBoundary      false;
    minBaffleAngle             -60.0;
    allowFreeStandingZoneFaces false;
    balanceThenRefine          true;
    nGapRefinements            0;
    minZoneRegionSize          1;
    additionalInsideCheck      false;
    moveCentroidsTol           -1.0;
    interfaceRefine            true;
    splitCells                 false;		
    wrapper
    {
        wrap        false;
        volSources  true;
        volDistance 1.0;
        meshInMM    false;
        maxIter     200;
        writeFields false;
        invert      false;
        sigma       3.0;
        cutoff      1000.0;
    }

    locationsInMesh      ( ( (   0.0 0.0    200.0 ) none ) );
    interZonesBaffle     false;
    singleCellGapClosure false;
    fullLeakChecks       true;
    locationsOutsideMesh ( ( 0.0 0.0 -100.0 )     );

}

snapControls
{
    featureEdges
    {
    }
    nOuterIter              1;
    nPreFeatureIter         0;
    nSolveIter              10;
    nFeatureIter            60;
    globalFeatureEdges      true;
    globalRegionSnap        false;
    nSmoothPatch            2;
    tolerance               4.0;
    nRelaxIter              5;
    zoneFeatureSnapping     true;
    directFeatureSnapping   true;
    geometryFeatureLines    true;
    snapSurfBoundary        true;
    collapseTol             0.25;
    enlargeStencil          true;
    smoothSnappedSurface    true;
    featureSnapChecks       true;
    concaveTol              0.3;
    nSliverSmooths          10;
    mergeBoundaryFaces      true;
    averageSurfaceNormal    true;
    repatchOverlapping      false;
    acuteReflexSnapAngle    25.0;
    minAcuteReflexSnapAngle 8.0;
}

addLayersControls
{
    layers
    {	
        
        top                  {nSurfaceLayers 0;finalLayerThickness 0.4;expansionRatio 1.25;grownUp automatic;}			
        inlet                {nSurfaceLayers 0;grownUp true;}
        left                 {nSurfaceLayers 0;grownUp true;}
        outlet               {nSurfaceLayers 0;grownUp true;}
        right                {nSurfaceLayers 0;grownUp true;}            

        ground_inner         {nSurfaceLayers 4;finalLayerThickness 0.4;expansionRatio 1.25;grownUp automatic;}
        ground_outer_0_1     {nSurfaceLayers 4;finalLayerThickness 0.4;expansionRatio 1.25;grownUp automatic;}
        ground_outer_0_2     {nSurfaceLayers 4;finalLayerThickness 0.4;expansionRatio 1.25;grownUp automatic;}
        ground_outer_0_3     {nSurfaceLayers 4;finalLayerThickness 0.4;expansionRatio 1.25;grownUp automatic;}
        ground_outer_0_03    {nSurfaceLayers 4;finalLayerThickness 0.4;expansionRatio 1.25;grownUp automatic;}
        ground_outer_0_4     {nSurfaceLayers 4;finalLayerThickness 0.4;expansionRatio 1.25;grownUp automatic;}
        ground_outer_0_5     {nSurfaceLayers 4;finalLayerThickness 0.4;expansionRatio 1.25;grownUp automatic;}
        ground_outer_0_05    {nSurfaceLayers 4;finalLayerThickness 0.4;expansionRatio 1.25;grownUp automatic;}
        ground_outer_0_15    {nSurfaceLayers 4;finalLayerThickness 0.4;expansionRatio 1.25;grownUp automatic;}
                    
        buildings_proposed   {nSurfaceLayers 4;finalLayerThickness 0.4;expansionRatio 1.25;grownUp automatic;}
        surroundings         {nSurfaceLayers 4;finalLayerThickness 0.4;expansionRatio 1.25;grownUp automatic;}
        near_surroundings    {nSurfaceLayers 4;finalLayerThickness 0.4;expansionRatio 1.25;grownUp automatic;}
        canopy               {nSurfaceLayers 4;finalLayerThickness 0.4;expansionRatio 1.25;grownUp automatic;}
    }
    
    relativeSizes             true;
    expansionRatio            1.25;
    finalLayerThickness       0.4;
    minThickness              0.2;
    featureAngleMerge         45;
    featureAngleTerminate     80.0;
    nRelaxIter                5;
    maxFaceThicknessRatio     2.0;
    maxThicknessToMedialRatio 0.3;
    minMedialAxisAngle        90;
    maxLayerIter              30;
    growConvexEdge            true;
    growConcaveEdge           true;
    growUpPatches             true;
    rebalance                 false;
    layerRecovery             1;
    nSmoothThickness          10;
    nSmoothSurfaceNormals     6;
    nSmoothNormals            3;
    maxProjectionDistance     10000.0;
    maxCellDistortion         50.0;
    medialRatioExp            1;
    growZoneLayers            false;
    writeVTK                  true;
    fixedFCH                  false;
    dualConcaveCollapse       0;
    dualZoneLayersScaling     1.0;
    dualLayerInterfaceWeights 0.5;
    dualMaxOrtho              180;
    dualReSnapZones           false;
    extrudeBlend              false;
}
meshQualityControls
{
    maxNonOrtho              70.0;
    maxBoundarySkewness      20;
    maxInternalSkewness      6;
    maxConcave               80.0;
    minFlatness              0.5;
    minVol                   1.0E-14;
    minTetQuality            -1.0E30;
    minArea                  1.0E-13;
    minTwist                 0.05;
    minDeterminant           1.0E-4;
    minFaceWeight            0.08;
    minVolRatio              0.02;
    minTriangleTwist         -0.99;
    errorReduction           0.75;
    nSmoothScale             10;
    minVolCollapseRatio      -1.0;
    faceFaceCells            false;
    minSnapRelativeVolume    -1;
    smoothAlignedEdges       false;
    minSnapRelativeTetVolume -1;
    maxGaussGreenCentroid    -1;
    nVolSmoothIter           8;
    maxCellAspectRatio       -1.0;
    maxFaceCentreNonOrtho    180.0;
    minEdgeLength            -1.0;
}
debug 0;
mergeTolerance 1.0E-6;
meshAlgorithm standard;
meshOptimization
{
    type cfMeshOptimize;
    cfMeshOptimizeCoeffs
    {
        qualityThreshold        0.0;
        numLaplaceIterations    0;
        maxNumGlobalIterations  10;
        maxNumIterations        50;
        maxNumSurfaceIterations 2;
        relaxedCheck            false;
        finalRelaxedCheck       true;
        checkWarped             false;
    }
}
cellRemoval
{
    checks      ( );
    patch       oldInternalFaces;
    removeCells true;
    writeVTK    true;
    }

