/*--------------------------------*- C++ -*----------------------------------*\
|       o          |                                                          |
|    o     o       | OpenFOAM: The Open Source CFD Toolbox                   |
|   o   O   o      | Version:  dev                                            |
|    o     o       | Web:      www.openfoam.org                              |
|       o          |                                                          |
\*---------------------------------------------------------------------------*/
FoamFile
{
    version     2.0;
    format      ascii;
    class       dictionary;
    location    "system";
    object      testDict;
}
// * * * * * * * * * * * * * * * * * * * * * * * * * * * * * * * * * * * * * //

application     simpleFoam;

startFrom       startTime;

startTime       0;

stopAt          endTime;

endTime         1000;

deltaT          1;

writeControl    timeStep;

writeInterval   50;

fvSchemes
{
    ddtSchemes
    {
        default         Euler;
    }

    gradSchemes
    {
        default         Gauss linear;
        grad(p)         Gauss linear;
        grad(U)         Gauss linear;
    }

    divSchemes
    {
        default         none;
        div(phi,U)      bounded Gauss linearUpwind grad(U);
        div(phi,k)      bounded Gauss upwind;
        div(phi,epsilon) bounded Gauss upwind;
    }

    laplacianSchemes
    {
        default         Gauss linear corrected;
    }
}

relaxationFactors
{
    fields
    {
        p               0.3;
    }
    equations
    {
        U               0.7;
        k               0.7;
        epsilon         0.7;
    }
}

// ************************************************************************* //
